Version 4
SHEET 1 3940 896
WIRE 1920 -1728 1872 -1728
WIRE 2144 -1728 2112 -1728
WIRE 2240 -1728 2224 -1728
WIRE 2080 -1536 2080 -1552
WIRE 1872 -1392 1872 -1728
WIRE 1904 -1392 1872 -1392
WIRE 2240 -1392 2240 -1728
WIRE 2240 -1392 2096 -1392
WIRE 2256 -1392 2240 -1392
WIRE 2352 -1392 2336 -1392
WIRE 2064 -1200 2064 -1216
WIRE 1872 -1056 1872 -1392
WIRE 1904 -1056 1872 -1056
WIRE 2352 -1056 2352 -1392
WIRE 2352 -1056 2096 -1056
WIRE 2384 -1056 2352 -1056
WIRE 2480 -1056 2464 -1056
WIRE 640 -976 640 -1040
WIRE 992 -976 992 -1040
WIRE 1120 -976 1120 -1040
WIRE 1248 -976 1248 -1040
WIRE 1392 -976 1392 -1040
WIRE 1520 -976 1520 -1040
WIRE 1632 -976 1632 -1040
WIRE 1760 -976 1760 -1040
WIRE 640 -864 640 -896
WIRE 992 -864 992 -896
WIRE 1120 -864 1120 -896
WIRE 1248 -864 1248 -896
WIRE 1392 -864 1392 -896
WIRE 1520 -864 1520 -896
WIRE 1632 -864 1632 -896
WIRE 1760 -864 1760 -896
WIRE 2064 -864 2064 -880
WIRE 768 -768 640 -768
WIRE 896 -768 848 -768
WIRE 960 -768 896 -768
WIRE 1168 -768 1040 -768
WIRE 1424 -768 1344 -768
WIRE 1728 -768 1504 -768
WIRE 1872 -736 1872 -1056
WIRE 1904 -736 1872 -736
WIRE 2080 -736 2080 -752
WIRE 2096 -736 2080 -736
WIRE 2480 -736 2480 -1056
WIRE 2480 -736 2096 -736
WIRE 2496 -736 2480 -736
WIRE 2592 -736 2576 -736
WIRE 1600 -720 1536 -720
WIRE 1728 -720 1728 -768
WIRE 1728 -720 1664 -720
WIRE 1008 -656 1008 -672
WIRE 896 -640 896 -768
WIRE 976 -640 896 -640
WIRE 1168 -624 1168 -768
WIRE 1168 -624 1040 -624
WIRE 1216 -624 1168 -624
WIRE 1344 -624 1344 -768
WIRE 1344 -624 1296 -624
WIRE 1424 -624 1344 -624
WIRE 1536 -624 1536 -720
WIRE 1536 -624 1504 -624
WIRE 1552 -624 1536 -624
WIRE 976 -608 896 -608
WIRE 1728 -608 1728 -720
WIRE 1728 -608 1616 -608
WIRE 1552 -592 1536 -592
WIRE 624 -576 624 -592
WIRE 1344 -576 1344 -624
WIRE 896 -560 896 -608
WIRE 1008 -560 1008 -592
WIRE 2064 -544 2064 -560
WIRE 1536 -528 1536 -592
WIRE 1728 -528 1728 -608
WIRE 1744 -528 1728 -528
WIRE 1168 -480 1168 -624
WIRE 1184 -480 1168 -480
WIRE 1344 -480 1344 -512
WIRE 624 -448 624 -496
WIRE 768 -448 624 -448
WIRE 896 -448 896 -480
WIRE 896 -448 848 -448
WIRE 896 -416 896 -448
WIRE 1872 -416 1872 -736
WIRE 1904 -416 1872 -416
WIRE 2592 -416 2592 -736
WIRE 2592 -416 2096 -416
WIRE 2624 -416 2592 -416
WIRE 2720 -416 2704 -416
WIRE 624 -400 624 -448
WIRE 2896 -352 2864 -352
WIRE 3040 -352 2976 -352
WIRE 3168 -352 3040 -352
WIRE 3040 -336 3040 -352
WIRE 3312 -336 3232 -336
WIRE 3168 -320 3152 -320
WIRE 624 -304 624 -320
WIRE 896 -304 896 -336
WIRE 2720 -256 2720 -416
WIRE 2752 -256 2720 -256
WIRE 2864 -256 2864 -352
WIRE 2864 -256 2832 -256
WIRE 2896 -256 2864 -256
WIRE 3040 -240 3040 -272
WIRE 3040 -240 2960 -240
WIRE 3152 -240 3152 -320
WIRE 3312 -240 3312 -336
WIRE 3312 -240 3152 -240
WIRE 2064 -224 2064 -240
WIRE 2896 -224 2880 -224
WIRE 3040 -208 3040 -240
WIRE 1776 -144 1760 -144
WIRE 1872 -144 1872 -416
WIRE 1872 -144 1856 -144
WIRE 1984 -144 1872 -144
WIRE 2720 -128 2720 -256
WIRE 2720 -128 2048 -128
WIRE 2880 -128 2880 -224
WIRE 3040 -128 3040 -144
WIRE 1984 -112 1952 -112
WIRE 1760 -96 1760 -144
WIRE 1728 -48 1728 -528
WIRE 1952 -48 1952 -112
WIRE 1952 -48 1728 -48
FLAG 640 -864 0
FLAG 624 -592 +V
FLAG 624 -304 -V
FLAG 640 -1040 IN
FLAG 640 -768 IN
FLAG 992 -864 0
FLAG 1120 -864 0
FLAG 992 -1040 +V
FLAG 1120 -1040 -V
FLAG 1008 -560 -V
FLAG 1008 -672 +V
FLAG 896 -304 0
FLAG 1584 -640 +V
FLAG 1584 -576 -V
FLAG 1184 -480 ETAJ_1
FLAG 1744 -528 ETAJ_2
FLAG 1344 -480 0
FLAG 1536 -528 0
FLAG 2016 -160 +V
FLAG 2016 -96 -V
FLAG 2720 -128 ETAJ_3
FLAG 1248 -864 0
FLAG 1248 -1040 S1
FLAG 1392 -864 0
FLAG 1392 -1040 S2
FLAG 1520 -864 0
FLAG 1520 -1040 S3
FLAG 1632 -864 0
FLAG 1632 -1040 S4
FLAG 1760 -864 0
FLAG 1760 -1040 S5
FLAG 1760 -96 0
FLAG 1904 -992 S3
FLAG 1920 -1664 S5
FLAG 1904 -352 S1
FLAG 1904 -672 S2
FLAG 1904 -1328 S4
FLAG 2016 -1808 +V
FLAG 2000 -1472 +V
FLAG 2000 -1136 +V
FLAG 2000 -816 +V
FLAG 1936 -1216 -V
FLAG 1936 -880 -V
FLAG 1952 -1552 -V
FLAG 1936 -560 -V
FLAG 2080 -1536 0
FLAG 2064 -1200 0
FLAG 2064 -864 0
FLAG 2064 -544 0
FLAG 2064 -224 0
FLAG 2000 -496 +V
FLAG 1936 -240 -V
FLAG 2928 -272 +V
FLAG 3200 -304 +V
FLAG 2928 -208 -V
FLAG 3200 -368 -V
FLAG 2880 -128 0
FLAG 3040 -128 0
FLAG 3312 -336 ETAJ_4
DATAFLAG 704 -768 ""
DATAFLAG 1168 -592 ""
DATAFLAG 1728 -560 ""
SYMBOL voltage 640 -992 R0
WINDOW 123 24 124 Left 2
WINDOW 39 0 0 Left 2
WINDOW 3 24 44 Left 2
SYMATTR Value2 AC 1
SYMATTR Value SINE(0 0.355 8k)
SYMATTR InstName Vin
SYMBOL res 1056 -784 R90
WINDOW 0 0 56 VBottom 2
WINDOW 3 32 56 VTop 2
SYMATTR InstName R2
SYMATTR Value {6*R}
SYMBOL res 752 -432 R270
WINDOW 0 32 56 VTop 2
WINDOW 3 0 56 VBottom 2
SYMATTR InstName RC2
SYMATTR Value {60*R}
SYMBOL res 608 -592 R0
SYMATTR InstName R6
SYMATTR Value {10k*a}
SYMBOL res 608 -416 R0
SYMATTR InstName R7
SYMATTR Value {10k*(1-a)}
SYMBOL res 864 -784 R90
WINDOW 0 0 56 VBottom 2
WINDOW 3 32 56 VTop 2
SYMATTR InstName R1
SYMATTR Value {R}
SYMBOL voltage 992 -992 R0
WINDOW 123 0 0 Left 2
WINDOW 39 0 0 Left 2
SYMATTR InstName VCC
SYMATTR Value 15
SYMBOL voltage 1120 -992 R0
WINDOW 123 0 0 Left 2
WINDOW 39 0 0 Left 2
SYMATTR InstName VSS
SYMATTR Value -15
SYMBOL res 880 -576 R0
SYMATTR InstName RC_eq
SYMATTR Value {R}
SYMBOL res 880 -432 R0
SYMATTR InstName RC1
SYMATTR Value {R}
SYMBOL OpAmps\\ADA4077 1008 -688 R0
WINDOW 0 24 45 Left 2
WINDOW 3 29 81 Left 2
SYMATTR InstName U1.1
SYMBOL res 1312 -640 R90
WINDOW 0 0 56 VBottom 2
WINDOW 3 32 56 VTop 2
SYMATTR InstName R1.2
SYMATTR Value {R2}
SYMBOL res 1520 -640 R90
WINDOW 0 0 56 VBottom 2
WINDOW 3 32 56 VTop 2
SYMATTR InstName R2.2
SYMATTR Value {R2}
SYMBOL cap 1328 -576 R0
WINDOW 0 25 14 Left 2
SYMATTR InstName C1.2
SYMATTR Value 21n
SYMBOL cap 1664 -736 R90
WINDOW 0 0 32 VBottom 2
WINDOW 3 32 32 VTop 2
SYMATTR InstName C2.2
SYMATTR Value 1.1n
SYMBOL OpAmps\\ADA4077 1584 -672 R0
WINDOW 0 25 48 Left 2
WINDOW 3 24 87 Left 2
SYMATTR InstName U1.2
SYMBOL res 1520 -784 R90
WINDOW 0 0 56 VBottom 2
WINDOW 3 32 56 VTop 2
SYMATTR InstName R3.2
SYMATTR Value {R2}
SYMBOL res 2352 -1376 M270
WINDOW 0 32 56 VTop 2
WINDOW 3 -12 47 VBottom 2
SYMATTR InstName R4.3
SYMATTR Value {1.1*R3}
SYMBOL res 2720 -400 M270
WINDOW 0 32 56 VTop 2
WINDOW 3 0 56 VBottom 2
SYMATTR InstName R1.3
SYMATTR Value {1.8*R3}
SYMBOL res 2592 -720 M270
WINDOW 0 32 56 VTop 2
WINDOW 3 0 56 VBottom 2
SYMATTR InstName R2.3
SYMATTR Value {0.7*R3}
SYMBOL res 2480 -1040 M270
WINDOW 0 32 56 VTop 2
WINDOW 3 0 56 VBottom 2
SYMATTR InstName R3.3
SYMATTR Value {R3}
SYMBOL OpAmps\\ADA4077 2016 -192 R0
WINDOW 3 -45 138 Left 2
SYMATTR InstName U1.3
SYMBOL res 1872 -160 R90
WINDOW 0 0 56 VBottom 2
WINDOW 3 32 56 VTop 2
SYMATTR InstName RG.3
SYMATTR Value {R3}
SYMBOL voltage 1248 -992 R0
WINDOW 123 0 0 Left 2
WINDOW 39 0 0 Left 2
SYMATTR InstName V1
SYMATTR Value 10
SYMBOL voltage 1392 -992 R0
WINDOW 123 0 0 Left 2
WINDOW 39 0 0 Left 2
SYMATTR InstName V2
SYMATTR Value 0
SYMBOL voltage 1520 -992 R0
WINDOW 123 0 0 Left 2
WINDOW 39 0 0 Left 2
SYMATTR InstName V3
SYMATTR Value 0
SYMBOL voltage 1632 -992 R0
WINDOW 123 0 0 Left 2
WINDOW 39 0 0 Left 2
SYMATTR InstName V4
SYMATTR Value 0
SYMBOL voltage 1760 -992 R0
WINDOW 123 0 0 Left 2
WINDOW 39 0 0 Left 2
SYMATTR InstName V5
SYMATTR Value 0
SYMBOL res 2240 -1744 R90
WINDOW 0 0 56 VBottom 2
WINDOW 3 32 56 VTop 2
SYMATTR InstName R5.3
SYMATTR Value {1.4*R3}
SYMBOL Switches\\ADG1212 2000 -1344 R0
SYMATTR InstName U4
SYMBOL Switches\\ADG1212 2000 -1008 R0
SYMATTR InstName U3
SYMBOL Switches\\ADG1212 2000 -688 R0
SYMATTR InstName U2
SYMBOL Switches\\ADG1212 2016 -1680 R0
SYMATTR InstName U5
SYMBOL Switches\\ADG1212 2000 -368 R0
SYMATTR InstName U1
SYMBOL OpAmps\\ADA4077 3200 -272 M180
WINDOW 3 -21 -17 Left 2
SYMATTR InstName U7
SYMBOL res 2848 -272 R90
WINDOW 0 0 56 VBottom 2
WINDOW 3 32 56 VTop 2
SYMATTR InstName R1.4
SYMATTR Value 10k
SYMBOL res 2992 -368 R90
WINDOW 0 0 56 VBottom 2
WINDOW 3 32 56 VTop 2
SYMATTR InstName R2.4
SYMATTR Value 10k
SYMBOL diode 3024 -336 R0
SYMATTR InstName D1
SYMATTR Value 1N4148
SYMBOL diode 3024 -208 R0
SYMATTR InstName D2
SYMATTR Value 1N4148
SYMBOL OpAmps\\AD8065 2928 -304 R0
SYMATTR InstName U8
TEXT 632 -1208 Left 2 !.param a 0.5000226
TEXT 632 -1256 Left 2 !.tran 0 0.5m 0 0.01m
TEXT 632 -1184 Left 2 !.param R 2k
TEXT 632 -1160 Left 2 !.op
TEXT 632 -1232 Left 2 !;step param a 0.5m 0.999 50m
TEXT 1232 -1136 Left 2 !.param R2 4k
TEXT 1232 -1160 Left 2 !;ac dec 1000 1 100k
TEXT 1624 -1168 Left 2 !.param R3 1k
TEXT 696 -1056 Left 2 ;0.355 MAX
TEXT 696 -1032 Left 2 ;0.141 MIN
TEXT 1624 -1128 Left 2 ;S1=10 => minim\nS5 = 10 => maxim
TEXT 632 -1376 Left 2 ;.FOUR 8khz 10 V(etaj_1)
TEXT 632 -1352 Left 2 ;.FOUR 8khz 10 V(etaj_2)
TEXT 632 -1328 Left 2 ;.FOUR 8khz 10 V(etaj_3)
