Version 4
SHEET 1 1592 1116
WIRE 656 -640 608 -640
WIRE 880 -640 848 -640
WIRE 976 -640 960 -640
WIRE 816 -448 816 -464
WIRE 608 -304 608 -640
WIRE 640 -304 608 -304
WIRE 976 -304 976 -640
WIRE 976 -304 832 -304
WIRE 992 -304 976 -304
WIRE 1088 -304 1072 -304
WIRE 800 -112 800 -128
WIRE 608 32 608 -304
WIRE 640 32 608 32
WIRE 1088 32 1088 -304
WIRE 1088 32 832 32
WIRE 1120 32 1088 32
WIRE 1216 32 1200 32
WIRE 800 224 800 208
WIRE 240 336 240 272
WIRE 368 336 368 272
WIRE 608 352 608 32
WIRE 640 352 608 352
WIRE 816 352 816 336
WIRE 832 352 816 352
WIRE 1216 352 1216 32
WIRE 1216 352 832 352
WIRE 1232 352 1216 352
WIRE 1328 352 1312 352
WIRE 240 448 240 416
WIRE 368 448 368 416
WIRE 800 544 800 528
WIRE -144 624 -144 560
WIRE 0 624 0 560
WIRE 128 624 128 560
WIRE 240 624 240 560
WIRE 368 624 368 560
WIRE 608 672 608 352
WIRE 640 672 608 672
WIRE 1328 672 1328 352
WIRE 1328 672 832 672
WIRE 1360 672 1328 672
WIRE 1456 672 1440 672
WIRE -144 736 -144 704
WIRE 0 736 0 704
WIRE 128 736 128 704
WIRE 240 736 240 704
WIRE 368 736 368 704
WIRE 800 864 800 848
WIRE 128 912 128 848
WIRE 512 944 496 944
WIRE 608 944 608 672
WIRE 608 944 592 944
WIRE 720 944 608 944
WIRE 1456 960 1456 672
WIRE 1456 960 784 960
WIRE 1488 960 1456 960
WIRE 720 976 688 976
WIRE 496 992 496 944
WIRE 128 1024 128 992
WIRE 688 1040 688 976
WIRE 688 1040 512 1040
FLAG 128 1024 0
FLAG 128 848 IN
FLAG 240 448 0
FLAG 368 448 0
FLAG 240 272 +V
FLAG 368 272 -V
FLAG 752 928 +V
FLAG 752 992 -V
FLAG 1488 960 ETAJ_3
FLAG 496 992 0
FLAG 640 96 S3
FLAG 656 -576 S5
FLAG 640 736 S1
FLAG 640 416 S2
FLAG 640 -240 S4
FLAG 752 -720 +V
FLAG 736 -384 +V
FLAG 736 -48 +V
FLAG 736 272 +V
FLAG 672 -128 -V
FLAG 672 208 -V
FLAG 688 -464 -V
FLAG 672 528 -V
FLAG 816 -448 0
FLAG 800 -112 0
FLAG 800 224 0
FLAG 800 544 0
FLAG 800 864 0
FLAG 736 592 +V
FLAG 672 848 -V
FLAG 512 1040 IN
FLAG -144 736 0
FLAG -144 560 S1
FLAG 0 736 0
FLAG 0 560 S2
FLAG 128 736 0
FLAG 128 560 S3
FLAG 240 736 0
FLAG 240 560 S4
FLAG 368 736 0
FLAG 368 560 S5
SYMBOL voltage 128 896 R0
WINDOW 123 24 124 Left 2
WINDOW 39 0 0 Left 2
WINDOW 3 24 44 Left 2
SYMATTR Value2 AC 1
SYMATTR Value SINE(0 3 8k)
SYMATTR InstName Vin1
SYMBOL voltage 240 320 R0
WINDOW 123 0 0 Left 2
WINDOW 39 0 0 Left 2
SYMATTR InstName VCC1
SYMATTR Value 15
SYMBOL voltage 368 320 R0
WINDOW 123 0 0 Left 2
WINDOW 39 0 0 Left 2
SYMATTR InstName VSS1
SYMATTR Value -15
SYMBOL res 1088 -288 M270
WINDOW 0 32 56 VTop 2
WINDOW 3 -12 47 VBottom 2
SYMATTR InstName R4
SYMATTR Value {1.1*R3}
SYMBOL res 1456 688 M270
WINDOW 0 32 56 VTop 2
WINDOW 3 0 56 VBottom 2
SYMATTR InstName R5
SYMATTR Value {1.8*R3}
SYMBOL res 1328 368 M270
WINDOW 0 32 56 VTop 2
WINDOW 3 0 56 VBottom 2
SYMATTR InstName R6
SYMATTR Value {0.7*R3}
SYMBOL res 1216 48 M270
WINDOW 0 32 56 VTop 2
WINDOW 3 0 56 VBottom 2
SYMATTR InstName R7
SYMATTR Value {R3}
SYMBOL OpAmps\\ADA4077 752 896 R0
WINDOW 3 -45 138 Left 2
SYMATTR InstName U2
SYMBOL res 608 928 R90
WINDOW 0 0 56 VBottom 2
WINDOW 3 32 56 VTop 2
SYMATTR InstName RG1
SYMATTR Value {R3}
SYMBOL res 976 -656 R90
WINDOW 0 0 56 VBottom 2
WINDOW 3 32 56 VTop 2
SYMATTR InstName R8
SYMATTR Value {1.4*R3}
SYMBOL Switches\\ADG1212 736 -256 R0
SYMATTR InstName U3
SYMBOL Switches\\ADG1212 736 80 R0
SYMATTR InstName U4
SYMBOL Switches\\ADG1212 736 400 R0
SYMATTR InstName U5
SYMBOL Switches\\ADG1212 752 -592 R0
SYMATTR InstName U6
SYMBOL Switches\\ADG1212 736 720 R0
SYMATTR InstName U7
SYMBOL voltage -144 608 R0
WINDOW 123 0 0 Left 2
WINDOW 39 0 0 Left 2
SYMATTR InstName V1
SYMATTR Value 0
SYMBOL voltage 0 608 R0
WINDOW 123 0 0 Left 2
WINDOW 39 0 0 Left 2
SYMATTR InstName V2
SYMATTR Value 0
SYMBOL voltage 128 608 R0
WINDOW 123 0 0 Left 2
WINDOW 39 0 0 Left 2
SYMATTR InstName V3
SYMATTR Value 0
SYMBOL voltage 240 608 R0
WINDOW 123 0 0 Left 2
WINDOW 39 0 0 Left 2
SYMATTR InstName V4
SYMATTR Value 0
SYMBOL voltage 368 608 R0
WINDOW 123 0 0 Left 2
WINDOW 39 0 0 Left 2
SYMATTR InstName V5
SYMATTR Value 10
TEXT -144 328 Left 2 !;tran 0 0.5m 0 0.01m
TEXT -144 304 Left 2 !.param R2 4k
TEXT -144 352 Left 2 !.FOUR 8khz 10 V(etaj_3)
TEXT -136 280 Left 2 !.ac dec 1000 1 100k
TEXT -144 376 Left 2 !.param R3 1k
TEXT -176 784 Left 2 ;S1=10 => minim\nS5 = 10 => maxim
TEXT 160 832 Left 2 ;3.1 MAX
TEXT 160 856 Left 2 ;2.13 MIN
