Version 4
SHEET 1 992 1008
WIRE -928 -240 -1056 -240
WIRE -800 -240 -848 -240
WIRE -736 -240 -800 -240
WIRE -528 -240 -656 -240
WIRE -800 -112 -800 -240
WIRE -720 -112 -800 -112
WIRE -528 -96 -528 -240
WIRE -528 -96 -656 -96
WIRE -512 -96 -528 -96
WIRE -720 -80 -800 -80
WIRE -1072 -64 -1104 -64
WIRE -688 -64 -688 -80
WIRE -1072 -48 -1072 -64
WIRE -800 -32 -800 -80
WIRE 320 48 304 48
WIRE -1072 80 -1072 32
WIRE -928 80 -1072 80
WIRE -800 80 -800 48
WIRE -800 80 -848 80
WIRE -448 96 -448 48
WIRE -176 96 -176 48
WIRE 64 96 64 48
WIRE 304 96 304 48
WIRE -800 112 -800 80
WIRE -1072 128 -1072 80
WIRE -1072 224 -1072 208
WIRE -800 224 -800 192
WIRE -448 224 -448 176
WIRE -176 224 -176 176
WIRE 64 224 64 176
WIRE 304 224 304 176
FLAG -1104 -96 +V
FLAG -1072 224 -V
FLAG -1056 -240 IN
FLAG -688 -64 -V
FLAG -800 224 0
FLAG -512 -96 out
FLAG 64 224 0
FLAG -176 224 0
FLAG -176 48 -V
FLAG -448 224 0
FLAG -448 48 IN
FLAG 64 48 +V
FLAG -688 -128 +V
FLAG 304 224 0
FLAG 304 48 +V_no_AC
FLAG -1104 -64 +V_no_AC
DATAFLAG -992 -240 ""
SYMBOL res -640 -256 R90
WINDOW 0 0 56 VBottom 2
WINDOW 3 32 56 VTop 2
SYMATTR InstName R1
SYMATTR Value {6*R}
SYMBOL res -944 96 R270
WINDOW 0 32 56 VTop 2
WINDOW 3 0 56 VBottom 2
SYMATTR InstName RC1
SYMATTR Value {60*R}
SYMBOL res -1088 -64 R0
SYMATTR InstName R2
SYMATTR Value {10k*a}
SYMBOL res -1088 112 R0
SYMATTR InstName R3
SYMATTR Value {10k*(1-a)}
SYMBOL res -832 -256 R90
WINDOW 0 0 56 VBottom 2
WINDOW 3 32 56 VTop 2
SYMATTR InstName R4
SYMATTR Value {R}
SYMBOL res -816 -48 R0
SYMATTR InstName RC_eq1
SYMATTR Value {R}
SYMBOL res -816 96 R0
SYMATTR InstName RC2
SYMATTR Value {R}
SYMBOL OpAmps\\ADA4077 -688 -160 R0
WINDOW 0 24 45 Left 2
WINDOW 3 29 81 Left 2
SYMATTR InstName U1
SYMBOL voltage 64 80 R0
WINDOW 123 24 124 Left 2
WINDOW 39 0 0 Left 2
SYMATTR Value2 AC {u(prb)}
SYMATTR InstName V1
SYMATTR Value 15
SYMBOL voltage -176 80 R0
WINDOW 123 0 0 Left 2
WINDOW 39 0 0 Left 2
SYMATTR InstName V2
SYMATTR Value -15
SYMBOL voltage -448 80 R0
WINDOW 123 24 124 Left 2
WINDOW 39 0 0 Left 2
WINDOW 3 24 44 Left 2
SYMATTR Value2 AC {u(-prb)}
SYMATTR Value SINE(0 0.141 8k)
SYMATTR InstName Vin2
SYMBOL voltage 304 80 R0
WINDOW 123 24 124 Left 2
WINDOW 39 0 0 Left 2
SYMATTR InstName V3
SYMATTR Value 15
TEXT -1096 480 Left 2 !.step param prb list -1 1 ; set prb=0 to turn off probe
TEXT -1096 528 Left 2 !.ac dec 100 .01 10Meg
TEXT -424 -208 Left 2 !.meas AC Power_Supply_Rejection_Ratio FIND PSRR() AT 1
TEXT -424 -240 Left 2 ;Measure low-frequency PSRR: .meas AC Power_Supply_Rejecton_Ratio FIND <Function> AT <Frequency>
TEXT -1096 504 Left 2 ;.param prb = -1
TEXT -1088 304 Left 2 ;Differential gain (AD):\nV(out)@1\nPower supply spur gain (APS):\nV(out)@2\nPSRR AD/APS\nV(out)@1/V(out)@2
TEXT -1096 552 Left 2 !.func AD() V(out)@1\n.func APS() V(out)@2\n.func PSRR() V(out)@1/V(out)@2
TEXT -1096 672 Left 2 !.param a 0.5000226
TEXT -1096 640 Left 2 !.param R 2k
TEXT 56 304 Left 2 ;In Borna rezistorului R2 se poate schimba \nV+ cu V+_no_AC\nputem alege fie aceeasi sursa care alimenteaza operationalul, \nfie o sursa fara variatiuni. \nValoarea PSRR este puternic influentata de aceasta alegere
